TROTINFO	1
	Version:	1.0
END


FILES	4
	1	grimech30.dat
	2	thermo30.dat
	3	crit.dat
	4	transport.TRANSP
END

ELEM	5
	O	1.59994000e+01
	H	1.00797000e+00
	C	1.20112000e+01
	N	1.40067000e+01
	AR	3.99480000e+01
END

SPEC	53
	H2
	H
	O
	O2
	OH
	H2O
	HO2
	H2O2
	C
	CH
	CH2
	CH2(S)
	CH3
	CH4
	CO
	CO2
	HCO
	CH2O
	CH2OH
	CH3O
	CH3OH
	C2H
	C2H2
	C2H3
	C2H4
	C2H5
	C2H6
	HCCO
	CH2CO
	HCCOH
	N
	NH
	NH2
	NH3
	NNH
	NO
	NO2
	N2O
	HNO
	CN
	HCN
	H2CN
	HCNN
	HCNO
	HOCN
	HNCO
	NCO
	N2
	AR
	C3H7
	C3H8
	CH2CHO
	CH3CHO
END

THERMO	53

H2
g
1           H   2
  ?     2.015940000000000e+00
2
  200.00   1000.00
   2.34433112e+00   7.98052075e-03  -1.94781510e-05   2.01572094e-08
  -7.37611761e-12  -9.17935173e+02   6.83010238e-01   0.00000000e+00
  1000.00   3500.00
   3.33727921e+00  -4.94024731e-05   4.99456778e-07  -1.79566394e-10
   2.00255376e-14  -9.50158922e+02  -3.20502334e+00   0.00000000e+00
!TPIS78 thermo30.dat

H
g
1           H   1
  ?     1.007970000000000e+00
2
  200.00   1000.00
   2.50000000e+00   7.05332819e-13  -1.99591964e-15   2.30081632e-18
  -9.27732332e-22   2.54736599e+04  -4.46682853e-01   0.00000000e+00
  1000.00   3500.00
   2.50000001e+00  -2.30842973e-11   1.61561948e-14  -4.73515235e-18
   4.98197357e-22   2.54736599e+04  -4.46682914e-01   0.00000000e+00
!L 7/88 thermo30.dat

O
g
1           O   1
  ?     1.599940000000000e+01
2
  200.00   1000.00
   3.16826710e+00  -3.27931884e-03   6.64306396e-06  -6.12806624e-09
   2.11265971e-12   2.91222592e+04   2.05193346e+00   0.00000000e+00
  1000.00   3500.00
   2.56942079e+00  -8.59741137e-05   4.19484589e-08  -1.00177799e-11
   1.22833691e-15   2.92175791e+04   4.78433861e+00   0.00000000e+00
!L 1/90 thermo30.dat

O2
g
1           O   2
  ?     3.199880000000000e+01
2
  200.00   1000.00
   3.78245636e+00  -2.99673416e-03   9.84730201e-06  -9.68129509e-09
   3.24372837e-12  -1.06394356e+03   3.65767573e+00   0.00000000e+00
  1000.00   3500.00
   3.28253784e+00   1.48308754e-03  -7.57966669e-07   2.09470555e-10
  -2.16717794e-14  -1.08845771e+03   5.45323133e+00   0.00000000e+00
!TPIS89 thermo30.dat

OH
g
2           O   1     H   1
  ?     1.700737000000000e+01
2
  200.00   1000.00
   3.99201543e+00  -2.40131752e-03   4.61793841e-06  -3.88113333e-09
   1.36411470e-12   3.61508056e+03  -1.03925458e-01   0.00000000e+00
  1000.00   3500.00
   3.09288766e+00   5.48429716e-04   1.26505228e-07  -8.79461556e-11
   1.17412376e-14   3.85865701e+03   4.47669615e+00   0.00000000e+00
!RUS 78 thermo30.dat

H2O
g
2           H   2     O   1
  ?     1.801534000000000e+01
2
  200.00   1000.00
   4.19864056e+00  -2.03643410e-03   6.52040211e-06  -5.48797062e-09
   1.77197817e-12  -3.02937267e+04  -8.49032208e-01   0.00000000e+00
  1000.00   3500.00
   3.03399247e+00   2.17691804e-03  -1.64072518e-07  -9.70419870e-11
   1.68200992e-14  -3.00042970e+04   4.96677027e+00   0.00000000e+00
!L 8/89 thermo30.dat

HO2
g
2           H   1     O   2
  ?     3.300677000000000e+01
2
  200.00   1000.00
   4.30179801e+00  -4.74912051e-03   2.11582891e-05  -2.42763894e-08
   9.29225124e-12   2.94808040e+02   3.71666245e+00   0.00000000e+00
  1000.00   3500.00
   4.01721093e+00   2.23982013e-03  -6.33658150e-07   1.14246370e-10
  -1.07908535e-14   1.11856692e+02   3.78510193e+00   0.00000000e+00
!L 5/89 thermo30.dat

H2O2
g
2           H   2     O   2
  ?     3.401474000000000e+01
2
  200.00   1000.00
   4.27611269e+00  -5.42822417e-04   1.67335701e-05  -2.15770813e-08
   8.62454363e-12  -1.77025821e+04   3.43505074e+00   0.00000000e+00
  1000.00   3500.00
   4.16500284e+00   4.90831694e-03  -1.90139225e-06   3.71185986e-10
  -2.87908305e-14  -1.78617877e+04   2.91615676e+00   0.00000000e+00
!L 7/88 thermo30.dat

C
g
1           C   1
  ?     1.201120000000000e+01
2
  200.00   1000.00
   2.55423955e+00  -3.21537724e-04   7.33792245e-07  -7.32234889e-10
   2.66521446e-13   8.54438832e+04   4.53130848e+00   0.00000000e+00
  1000.00   3500.00
   2.49266888e+00   4.79889284e-05  -7.24335020e-08   3.74291029e-11
  -4.87277893e-15   8.54512953e+04   4.80150373e+00   0.00000000e+00
!L11/88 thermo30.dat

CH
g
2           C   1     H   1
  ?     1.301917000000000e+01
2
  200.00   1000.00
   3.48981665e+00   3.23835541e-04  -1.68899065e-06   3.16217327e-09
  -1.40609067e-12   7.07972934e+04   2.08401108e+00   0.00000000e+00
  1000.00   3500.00
   2.87846471e+00   9.70913681e-04   1.44445655e-07  -1.30687849e-10
   1.76079383e-14   7.10124364e+04   5.48498012e+00   0.00000000e+00
!TPIS79 thermo30.dat

CH2
g
2           C   1     H   2
  ?     1.402714000000000e+01
2
  200.00   1000.00
   3.76267867e+00   9.68872143e-04   2.79489841e-06  -3.85091153e-09
   1.68741719e-12   4.60040401e+04   1.56253185e+00   0.00000000e+00
  1000.00   3500.00
   2.87410113e+00   3.65639292e-03  -1.40894597e-06   2.60179549e-10
  -1.87727567e-14   4.62636039e+04   6.17119328e+00   0.00000000e+00
!L S/93 thermo30.dat

CH2(S)
g
2           C   1     H   2
  ?     1.402714000000000e+01
2
  200.00   1000.00
   4.19860411e+00  -2.36661419e-03   8.23296220e-06  -6.68815981e-09
   1.94314737e-12   5.04968163e+04  -7.69118967e-01   0.00000000e+00
  1000.00   3500.00
   2.29203840e+00   4.65588637e-03  -2.01191947e-06   4.17906000e-10
  -3.39716365e-14   5.09259996e+04   8.62650181e+00   0.00000000e+00
!L S/93 thermo30.dat

CH3
g
2           C   1     H   3
  ?     1.503511000000000e+01
2
  200.00   1000.00
   3.67359040e+00   2.01095175e-03   5.73021856e-06  -6.87117425e-09
   2.54385734e-12   1.64449988e+04   1.60456433e+00   0.00000000e+00
  1000.00   3500.00
   2.28571768e+00   7.23990037e-03  -2.98714348e-06   5.95684644e-10
  -4.67154394e-14   1.67755844e+04   8.48007209e+00   0.00000000e+00
!L11/89 thermo30.dat

CH4
g
2           C   1     H   4
  ?     1.604308000000000e+01
2
  200.00   1000.00
   5.14987613e+00  -1.36709788e-02   4.91800599e-05  -4.84743026e-08
   1.66693956e-11  -1.02466476e+04  -4.64130376e+00   0.00000000e+00
  1000.00   3500.00
   7.48514481e-02   1.33909467e-02  -5.73285809e-06   1.22292535e-09
  -1.01815230e-13  -9.46834449e+03   1.84373183e+01   0.00000000e+00
!L 8/88 thermo30.dat

CO
g
2           C   1     O   1
  ?     2.801060000000000e+01
2
  200.00   1000.00
   3.57953347e+00  -6.10353680e-04   1.01681433e-06   9.07005884e-10
  -9.04424499e-13  -1.43440860e+04   3.50840928e+00   0.00000000e+00
  1000.00   3500.00
   2.71518560e+00   2.06252743e-03  -9.98825771e-07   2.30053008e-10
  -2.03647716e-14  -1.41518724e+04   7.81868779e+00   0.00000000e+00
!TPIS79 thermo30.dat

CO2
g
2           C   1     O   2
  ?     4.401000000000000e+01
2
  200.00   1000.00
   2.35677352e+00   8.98459677e-03  -7.12356269e-06   2.45919022e-09
  -1.43699548e-13  -4.83719697e+04   9.90105222e+00   0.00000000e+00
  1000.00   3500.00
   3.85746027e+00   4.41437026e-03  -2.21481404e-06   5.23490188e-10
  -4.72084164e-14  -4.87591660e+04   2.27163817e+00   0.00000000e+00
!L 7/88 thermo30.dat

HCO
g
3           H   1     C   1     O   1
  ?     2.901857000000000e+01
2
  200.00   1000.00
   4.22118584e+00  -3.24392532e-03   1.37799446e-05  -1.33144093e-08
   4.33768865e-12   3.83956496e+03   3.39437243e+00   0.00000000e+00
  1000.00   3500.00
   2.77217442e+00   4.95695526e-03  -2.48445613e-06   5.89161778e-10
  -5.33508711e-14   4.01191814e+03   9.79834470e+00   0.00000000e+00
!L12/89 thermo30.dat

CH2O
g
3           H   2     C   1     O   1
  ?     3.002654000000000e+01
2
  200.00   1000.00
   4.79372315e+00  -9.90833369e-03   3.73220008e-05  -3.79285261e-08
   1.31772652e-11  -1.43089567e+04   6.02812900e-01   0.00000000e+00
  1000.00   3500.00
   1.76069008e+00   9.20000082e-03  -4.42258813e-06   1.00641212e-09
  -8.83855640e-14  -1.39958323e+04   1.36563230e+01   0.00000000e+00
!L 8/88 thermo30.dat

CH2OH
g
3           C   1     H   3     O   1
  ?     3.103451000000000e+01
2
  200.00   1000.00
   3.86388918e+00   5.59672304e-03   5.93271791e-06  -1.04532012e-08
   4.36967278e-12  -3.19391367e+03   5.47302243e+00   0.00000000e+00
  1000.00   3500.00
   3.69266569e+00   8.64576797e-03  -3.75101120e-06   7.87234636e-10
  -6.48554201e-14  -3.24250626e+03   5.81043212e+00   0.00000000e+00
!GUNL93 thermo30.dat

CH3O
g
3           C   1     H   3     O   1
  ?     3.103451000000000e+01
2
  300.00   1000.00
   2.10620400e+00   7.21659500e-03   5.33847200e-06  -7.37763600e-09
   2.07561000e-12   9.78601100e+02   1.31521770e+01   0.00000000e+00
  1000.00   3000.00
   3.77081502e+00   7.87149700e-03  -2.65638400e-06   3.94443100e-10
  -2.11261600e-14   1.27818533e+02   2.92946842e+00   0.00000000e+00
!121686 thermo30.dat

CH3OH
g
3           C   1     H   4     O   1
  ?     3.204248000000000e+01
2
  200.00   1000.00
   5.71539582e+00  -1.52309129e-02   6.52441155e-05  -7.10806889e-08
   2.61352698e-11  -2.56427656e+04  -1.50409823e+00   0.00000000e+00
  1000.00   3500.00
   1.78970779e+00   1.40938292e-02  -6.36500835e-06   1.38171085e-09
  -1.17060220e-13  -2.53748746e+04   1.45023631e+01   0.00000000e+00
!L 8/88 thermo30.dat

C2H
g
2           C   2     H   1
  ?     2.503037000000000e+01
2
  200.00   1000.00
   2.88965733e+00   1.34099611e-02  -2.84769501e-05   2.94791045e-08
  -1.09331511e-11   6.68393932e+04   6.22296438e+00   0.00000000e+00
  1000.00   3500.00
   3.16780649e+00   4.75221902e-03  -1.83787077e-06   3.04190252e-10
  -1.77232770e-14   6.71210650e+04   6.63589496e+00   0.00000000e+00
!L 1/91 thermo30.dat

C2H2
g
2           C   2     H   2
  ?     2.603834000000001e+01
2
  200.00   1000.00
   8.08681094e-01   2.33615629e-02  -3.55171815e-05   2.80152437e-08
  -8.50072974e-12   2.64289807e+04   1.39397051e+01   0.00000000e+00
  1000.00   3500.00
   4.14756966e+00   5.96166664e-03  -2.37294852e-06   4.67412171e-10
  -3.61235213e-14   2.59359992e+04  -1.23028129e+00   0.00000000e+00
!L 1/91 thermo30.dat

C2H3
g
2           C   2     H   3
  ?     2.704631000000001e+01
2
  200.00   1000.00
   3.21246645e+00   1.51479162e-03   2.59209412e-05  -3.57657847e-08
   1.47150873e-11   3.48598468e+04   8.51054025e+00   0.00000000e+00
  1000.00   3500.00
   3.01672395e+00   1.03302292e-02  -4.68082349e-06   1.01763288e-09
  -8.62607041e-14   3.46128739e+04   7.78732413e+00   0.00000000e+00
!L 2/92 thermo30.dat

C2H4
g
2           C   2     H   4
  ?     2.805428000000000e+01
2
  200.00   1000.00
   3.95920148e+00  -7.57052247e-03   5.70990292e-05  -6.91588753e-08
   2.69884373e-11   5.08977593e+03   4.09733096e+00   0.00000000e+00
  1000.00   3500.00
   2.03611104e+00   1.46454151e-02  -6.71077915e-06   1.47222923e-09
  -1.25706061e-13   4.93988624e+03   1.03053700e+01   0.00000000e+00
!L 1/91 thermo30.dat

C2H5
g
2           C   2     H   5
  ?     2.906225000000001e+01
2
  200.00   1000.00
   4.30646568e+00  -4.18658892e-03   4.97142807e-05  -5.99126606e-08
   2.30509004e-11   1.28416265e+04   4.70720924e+00   0.00000000e+00
  1000.00   3500.00
   1.95465637e+00   1.73972722e-02  -7.98206668e-06   1.75217689e-09
  -1.49641576e-13   1.28575201e+04   1.34624347e+01   0.00000000e+00
!L12/92 thermo30.dat

C2H6
g
2           C   2     H   6
  ?     3.007022000000000e+01
2
  200.00   1000.00
   4.29142492e+00  -5.50154270e-03   5.99438288e-05  -7.08466285e-08
   2.68685771e-11  -1.15222055e+04   2.66682316e+00   0.00000000e+00
  1000.00   3500.00
   1.07188142e+00   2.16852677e-02  -1.00256067e-05   2.21412001e-09
  -1.90002890e-13  -1.14263932e+04   1.51156112e+01   0.00000000e+00
!L 8/88 thermo30.dat

HCCO
g
3           H   1     C   2     O   1
  ?     4.102977000000001e+01
2
  300.00   1000.00
   2.25172140e+00   1.76550210e-02  -2.37291010e-05   1.72757590e-08
  -5.06648110e-12   2.00594490e+04   1.24904170e+01   0.00000000e+00
  1000.00   4000.00
   5.62818120e+00   4.08534010e-03  -1.59345470e-06   2.86260520e-10
  -1.94078320e-14   1.93272409e+04  -3.93008538e+00   0.00000000e+00
!SRIC91 thermo30.dat

CH2CO
g
3           C   2     H   2     O   1
  ?     4.203774000000001e+01
2
  200.00   1000.00
   2.13583630e+00   1.81188721e-02  -1.73947474e-05   9.34397568e-09
  -2.01457615e-12  -7.04291804e+03   1.22156480e+01   0.00000000e+00
  1000.00   3500.00
   4.51129734e+00   9.00359745e-03  -4.16939635e-06   9.23345882e-10
  -7.94838201e-14  -7.55105312e+03   6.32247124e-01   0.00000000e+00
!L 5/90 thermo30.dat

HCCOH
g
3           C   2     O   1     H   2
  ?     4.203774000000001e+01
2
  300.00   1000.00
   1.24237330e+00   3.10722010e-02  -5.08668640e-05   4.31371310e-08
  -1.40145940e-11   8.03161430e+03   1.38743190e+01   0.00000000e+00
  1000.00   5000.00
   5.92380536e+00   6.79236000e-03  -2.56585640e-06   4.49878410e-10
  -2.99401010e-14   7.26464924e+03  -7.60161012e+00   0.00000000e+00
! SRI91 thermo30.dat

N
g
1           N   1
  ?     1.400670000000000e+01
2
  200.00   1000.00
   2.50000000e+00   0.00000000e+00   0.00000000e+00   0.00000000e+00
   0.00000000e+00   5.61046370e+04   4.19390870e+00   0.00000000e+00
  1000.00   6000.00
   2.41594289e+00   1.74890650e-04  -1.19023690e-07   3.02262450e-11
  -2.03609820e-15   5.61337740e+04   4.64960943e+00   0.00000000e+00
!L 6/88 thermo30.dat

NH
g
2           N   1     H   1
  ?     1.501467000000000e+01
2
  200.00   1000.00
   3.49290850e+00   3.11791980e-04  -1.48904840e-06   2.48164420e-09
  -1.03569670e-12   4.18806290e+04   1.84832780e+00   0.00000000e+00
  1000.00   6000.00
   2.78369299e+00   1.32984300e-03  -4.24780470e-07   7.83485010e-11
  -5.50444700e-15   4.21208485e+04   5.74078051e+00   0.00000000e+00
!And94  thermo30.dat

NH2
g
2           N   1     H   2
  ?     1.602264000000000e+01
2
  200.00   1000.00
   4.20400290e+00  -2.10613850e-03   7.10683480e-06  -5.61151970e-09
   1.64407170e-12   2.18859100e+04  -1.41842480e-01   0.00000000e+00
  1000.00   6000.00
   2.83474211e+00   3.20730820e-03  -9.33908040e-07   1.37029530e-10
  -7.92061440e-15   2.21719562e+04   6.52041571e+00   0.00000000e+00
!And89  thermo30.dat

NH3
g
2           N   1     H   3
  ?     1.703061000000000e+01
2
  200.00   1000.00
   4.28602740e+00  -4.66052300e-03   2.17185130e-05  -2.28088870e-08
   8.26380460e-12  -6.74172850e+03  -6.25372770e-01   0.00000000e+00
  1000.00   6000.00
   2.63445375e+00   5.66625600e-03  -1.72786760e-06   2.38671610e-10
  -1.25787860e-14  -6.54469712e+03   6.56628146e+00   0.00000000e+00
!J 6/77 thermo30.dat

NNH
g
2           N   2     H   1
  ?     2.902137000000000e+01
2
  200.00   1000.00
   4.34469270e+00  -4.84970720e-03   2.00594590e-05  -2.17264640e-08
   7.94695390e-12   2.87919730e+04   2.97794100e+00   0.00000000e+00
  1000.00   6000.00
   3.76675414e+00   2.89150820e-03  -1.04166200e-06   1.68425940e-10
  -1.00918960e-14   2.86506975e+04   4.47050902e+00   0.00000000e+00
!T07/93 thermo30.dat

NO
g
2           N   1     O   1
  ?     3.000610000000000e+01
2
  200.00   1000.00
   4.21847630e+00  -4.63897600e-03   1.10410220e-05  -9.33613540e-09
   2.80357700e-12   9.84462300e+03   2.28084640e+00   0.00000000e+00
  1000.00   6000.00
   3.26060602e+00   1.19110430e-03  -4.29170480e-07   6.94576690e-11
  -4.03360990e-15   9.92097448e+03   6.36930082e+00   0.00000000e+00
!RUS 78 thermo30.dat

NO2
g
2           N   1     O   2
  ?     4.600550000000000e+01
2
  200.00   1000.00
   3.94403120e+00  -1.58542900e-03   1.66578120e-05  -2.04754260e-08
   7.83505640e-12   2.89661790e+03   6.31199170e+00   0.00000000e+00
  1000.00   6000.00
   4.88475385e+00   2.17239560e-03  -8.28069060e-07   1.57475100e-10
  -1.05108950e-14   2.31649816e+03  -1.17416067e-01   0.00000000e+00
!L 7/88 thermo30.dat

N2O
g
2           N   2     O   1
  ?     4.401280000000001e+01
2
  200.00   1000.00
   2.25715020e+00   1.13047280e-02  -1.36713190e-05   9.68198060e-09
  -2.93071820e-12   8.74177440e+03   1.07579920e+01   0.00000000e+00
  1000.00   6000.00
   4.82307334e+00   2.62702510e-03  -9.58508740e-07   1.60007120e-10
  -9.77523030e-15   8.07340407e+03  -2.20172392e+00   0.00000000e+00
!L 7/88 thermo30.dat

HNO
g
3           H   1     N   1     O   1
  ?     3.101407000000000e+01
2
  200.00   1000.00
   4.53349160e+00  -5.66961710e-03   1.84732070e-05  -1.71370940e-08
   5.54545730e-12   1.15482970e+04   1.74984170e+00   0.00000000e+00
  1000.00   6000.00
   2.97925042e+00   3.49440590e-03  -7.85497780e-07   5.74795940e-11
  -1.93359160e-16   1.17505817e+04   8.60637691e+00   0.00000000e+00
!And93  thermo30.dat

CN
g
2           C   1     N   1
  ?     2.601790000000000e+01
2
  200.00   1000.00
   3.61293510e+00  -9.55513270e-04   2.14429770e-06  -3.15163230e-10
  -4.64303560e-13   5.17083400e+04   3.98049950e+00   0.00000000e+00
  1000.00   6000.00
   3.74598051e+00   4.34507750e-05   2.97059840e-07  -6.86518060e-11
   4.41341730e-15   5.15361873e+04   2.78675954e+00   0.00000000e+00
!HBH92  thermo30.dat

HCN
g
3           H   1     C   1     N   1
  ?     2.702587000000000e+01
2
  200.00   1000.00
   2.25898860e+00   1.00511700e-02  -1.33517630e-05   1.00923490e-08
  -3.00890280e-12   1.47126330e+04   8.91644190e+00   0.00000000e+00
  1000.00   6000.00
   3.80223967e+00   3.14642280e-03  -1.06321850e-06   1.66197570e-10
  -9.79975700e-15   1.44072913e+04   1.57545749e+00   0.00000000e+00
!GRI/98 thermo30.dat

H2CN
g
3           H   2     C   1     N   1
  ?     2.803384000000000e+01
2
  300.00   1000.00
   2.85166100e+00   5.69523310e-03   1.07114000e-06  -1.62261200e-09
  -2.35110810e-13   2.86378200e+04   8.99275110e+00   0.00000000e+00
  1000.00   4000.00
   5.20970149e+00   2.96929110e-03  -2.85558910e-07  -1.63555000e-10
   3.04325890e-14   2.76771105e+04  -4.44446228e+00   0.00000000e+00
! 41687 thermo30.dat

HCNN
g
3           C   1     N   2     H   1
  ?     4.103257000000000e+01
2
  300.00   1000.00
   2.52431940e+00   1.59606190e-02  -1.88163540e-05   1.21255400e-08
  -3.23573780e-12   5.42619840e+04   1.16758700e+01   0.00000000e+00
  1000.00   5000.00
   5.89462942e+00   3.98959590e-03  -1.59823800e-06   2.92493950e-10
  -2.00946860e-14   5.34529464e+04  -5.10300383e+00   0.00000000e+00
!SRI/94 thermo30.dat

HCNO
g
4           H   1     N   1     C   1     O   1
  ?     4.302527000000001e+01
2
  300.00   1382.00
   2.64727989e+00   1.27505342e-02  -1.04794236e-05   4.41432836e-09
  -7.57521466e-13   1.92990252e+04   1.07332972e+01   0.00000000e+00
  1382.00   5000.00
   6.59856447e+00   3.02778626e-03  -1.07704346e-06   1.71666528e-10
  -1.01439391e-14   1.79661893e+04  -1.03303700e+01   0.00000000e+00
!BDEA94 thermo30.dat

HOCN
g
4           H   1     N   1     C   1     O   1
  ?     4.302527000000001e+01
2
  300.00   1368.00
   3.78604952e+00   6.88667922e-03  -3.21487864e-06   5.17195767e-10
   1.19360788e-14  -2.82698400e+03   5.63292162e+00   0.00000000e+00
  1368.00   5000.00
   5.89787895e+00   3.16789393e-03  -1.11801064e-06   1.77243144e-10
  -1.04339177e-14  -3.70657448e+03  -6.18189554e+00   0.00000000e+00
!BDEA94 thermo30.dat

HNCO
g
4           H   1     N   1     C   1     O   1
  ?     4.302527000000001e+01
2
  300.00   1478.00
   3.63096317e+00   7.30282357e-03  -2.28050003e-06  -6.61271298e-10
   3.62235752e-13  -1.55873636e+04   6.19457727e+00   0.00000000e+00
  1478.00   5000.00
   6.22394031e+00   3.17864004e-03  -1.09378755e-06   1.70735163e-10
  -9.95021955e-15  -1.66599180e+04  -8.38216692e+00   0.00000000e+00
!BDEA94 thermo30.dat

NCO
g
3           N   1     C   1     O   1
  ?     4.201730000000001e+01
2
  200.00   1000.00
   2.82693080e+00   8.80516880e-03  -8.38661340e-06   4.80169640e-09
  -1.33135950e-12   1.46824770e+04   9.55046460e+00   0.00000000e+00
  1000.00   6000.00
   5.15218534e+00   2.30517610e-03  -8.80331530e-07   1.47890980e-10
  -9.09779960e-15   1.40041239e+04  -2.54426991e+00   0.00000000e+00
!EA 93  thermo30.dat

N2
g
1           N   2
  ?     2.801340000000000e+01
2
  300.00   1000.00
   3.29867700e+00   1.40824040e-03  -3.96322200e-06   5.64151500e-09
  -2.44485400e-12  -1.02089990e+03   3.95037200e+00   0.00000000e+00
  1000.00   5000.00
   2.92663856e+00   1.48797680e-03  -5.68476000e-07   1.00970380e-10
  -6.75335100e-15  -9.22795640e+02   5.98053611e+00   0.00000000e+00
!121286 thermo30.dat

AR
g
1           AR   1
  ?     3.994800000000001e+01
2
  300.00   1000.00
   2.50000000e+00   0.00000000e+00   0.00000000e+00   0.00000000e+00
   0.00000000e+00  -7.45375000e+02   4.36600000e+00   0.00000000e+00
  1000.00   5000.00
   2.50000000e+00   0.00000000e+00   0.00000000e+00   0.00000000e+00
   0.00000000e+00  -7.45375000e+02   4.36600000e+00   0.00000000e+00
!120186 thermo30.dat

C3H7
g
2           C   3     H   7
  ?     4.308939000000000e+01
2
  300.00   1000.00
   1.05155180e+00   2.59919800e-02   2.38005400e-06  -1.96095690e-08
   9.37324700e-12   1.06318630e+04   2.11225590e+01   0.00000000e+00
  1000.00   5000.00
   7.70278911e+00   1.60442030e-02  -5.28332200e-06   7.62985900e-10
  -3.93922840e-14   8.29836199e+03  -1.54807874e+01   0.00000000e+00
!L 9/84 thermo30.dat

C3H8
g
2           C   3     H   8
  ?     4.409736000000000e+01
2
  300.00   1000.00
   9.33553810e-01   2.64245790e-02   6.10597270e-06  -2.19774990e-08
   9.51492530e-12  -1.39585200e+04   1.92016910e+01   0.00000000e+00
  1000.00   5000.00
   7.53422340e+00   1.88722390e-02  -6.27184910e-06   9.14756490e-10
  -4.78380690e-14  -1.64675902e+04  -1.78929293e+01   0.00000000e+00
!L 4/85 thermo30.dat

CH2CHO
g
3           O   1     H   3     C   2
  ?     4.304571000000000e+01
2
  300.00   1000.00
   3.40906200e+00   1.07385740e-02   1.89149200e-06  -7.15858300e-09
   2.86738500e-12   1.52147660e+03   9.55829000e+00   0.00000000e+00
  1000.00   5000.00
   5.97569273e+00   8.13059100e-03  -2.74362400e-06   4.07030400e-10
  -2.17601700e-14   4.90301718e+02  -5.04541083e+00   0.00000000e+00
!SAND86 thermo30.dat

CH3CHO
g
3           C   2     H   4     O   1
  ?     4.405368000000000e+01
2
  200.00   1000.00
   4.72945950e+00  -3.19328580e-03   4.75349210e-05  -5.74586110e-08
   2.19311120e-11  -2.15728780e+04   4.10301590e+00   0.00000000e+00
  1000.00   6000.00
   5.40411070e+00   1.17230590e-02  -4.22631370e-06   6.83724510e-10
  -4.09848630e-14  -2.25931212e+04  -3.48079124e+00   0.00000000e+00
!L 8/88 thermo30.dat
END

CRIT	53
H2	3.32000000e+01	1.29696000e+06	3.05000000e-01	6.49151427e-05	-2.20000000e-01
H	1.26200000e+02	3.39438750e+06	2.90000000e-01	8.96459365e-05	4.00000000e-02
O	1.26200000e+02	3.39438750e+06	2.90000000e-01	8.96459365e-05	4.00000000e-02
O2	1.54600000e+02	5.04598500e+06	2.88000000e-01	7.33652999e-05	2.10000000e-02
OH	1.26200000e+02	3.39438750e+06	2.90000000e-01	8.96459365e-05	4.00000000e-02
H2O	6.47300000e+02	2.20483200e+07	2.29000000e-01	5.58985138e-05	3.44000000e-01
HO2	1.26200000e+02	3.39438750e+06	2.90000000e-01	8.96459365e-05	4.00000000e-02
H2O2	1.26200000e+02	3.39438750e+06	2.90000000e-01	8.96459365e-05	4.00000000e-02
C	1.26200000e+02	3.39438750e+06	2.90000000e-01	8.96459365e-05	4.00000000e-02
CH	1.26200000e+02	3.39438750e+06	2.90000000e-01	8.96459365e-05	4.00000000e-02
CH2	1.26200000e+02	3.39438750e+06	2.90000000e-01	8.96459365e-05	4.00000000e-02
CH2(S)	1.26200000e+02	3.39438750e+06	2.90000000e-01	8.96459365e-05	4.00000000e-02
CH3	1.26200000e+02	3.39438750e+06	2.90000000e-01	8.96459365e-05	4.00000000e-02
CH4	1.90600000e+02	4.60015500e+06	2.88000000e-01	9.92150588e-05	8.00000000e-03
CO	1.32900000e+02	3.49571250e+06	2.95000000e-01	9.32493825e-05	4.90000000e-02
CO2	3.04200000e+02	7.37646000e+06	2.74000000e-01	9.39499289e-05	2.25000000e-01
HCO	1.26200000e+02	3.39438750e+06	2.90000000e-01	8.96459365e-05	4.00000000e-02
CH2O	1.26200000e+02	3.39438750e+06	2.90000000e-01	8.96459365e-05	4.00000000e-02
CH2OH	1.26200000e+02	3.39438750e+06	2.90000000e-01	8.96459365e-05	4.00000000e-02
CH3O	1.26200000e+02	3.39438750e+06	2.90000000e-01	8.96459365e-05	4.00000000e-02
CH3OH	1.26200000e+02	3.39438750e+06	2.90000000e-01	8.96459365e-05	4.00000000e-02
C2H	1.26200000e+02	3.39438750e+06	2.90000000e-01	8.96459365e-05	4.00000000e-02
C2H2	3.08300000e+02	6.14029500e+06	2.71000000e-01	1.13132727e-04	1.84000000e-01
C2H3	1.26200000e+02	3.39438750e+06	2.90000000e-01	8.96459365e-05	4.00000000e-02
C2H4	2.82400000e+02	5.03585250e+06	2.76000000e-01	1.28687229e-04	6.50000000e-02
C2H5	1.26200000e+02	3.39438750e+06	2.90000000e-01	8.96459365e-05	4.00000000e-02
C2H6	3.05400000e+02	4.88386500e+06	2.85000000e-01	1.48178406e-04	9.80000000e-02
HCCO	1.26200000e+02	3.39438750e+06	2.90000000e-01	8.96459365e-05	4.00000000e-02
CH2CO	1.26200000e+02	3.39438750e+06	2.90000000e-01	8.96459365e-05	4.00000000e-02
HCCOH	1.26200000e+02	3.39438750e+06	2.90000000e-01	8.96459365e-05	4.00000000e-02
N	1.26200000e+02	3.39438750e+06	2.90000000e-01	8.96459365e-05	4.00000000e-02
NH	1.26200000e+02	3.39438750e+06	2.90000000e-01	8.96459365e-05	4.00000000e-02
NH2	1.26200000e+02	3.39438750e+06	2.90000000e-01	8.96459365e-05	4.00000000e-02
NH3	1.26200000e+02	3.39438750e+06	2.90000000e-01	8.96459365e-05	4.00000000e-02
NNH	1.26200000e+02	3.39438750e+06	2.90000000e-01	8.96459365e-05	4.00000000e-02
NO	1.80000000e+02	6.48480000e+06	2.50000000e-01	5.76966506e-05	6.07000000e-01
NO2	4.31400000e+02	1.01325000e+07	4.80000000e-01	1.69918021e-04	8.60000000e-01
N2O	3.09000000e+02	7.24473750e+06	2.74000000e-01	9.71675076e-05	1.60000000e-01
HNO	1.26200000e+02	3.39438750e+06	2.90000000e-01	8.96459365e-05	4.00000000e-02
CN	1.26200000e+02	3.39438750e+06	2.90000000e-01	8.96459365e-05	4.00000000e-02
HCN	1.26200000e+02	3.39438750e+06	2.90000000e-01	8.96459365e-05	4.00000000e-02
H2CN	1.26200000e+02	3.39438750e+06	2.90000000e-01	8.96459365e-05	4.00000000e-02
HCNN	1.26200000e+02	3.39438750e+06	2.90000000e-01	8.96459365e-05	4.00000000e-02
HCNO	1.26200000e+02	3.39438750e+06	2.90000000e-01	8.96459365e-05	4.00000000e-02
HOCN	1.26200000e+02	3.39438750e+06	2.90000000e-01	8.96459365e-05	4.00000000e-02
HNCO	1.26200000e+02	3.39438750e+06	2.90000000e-01	8.96459365e-05	4.00000000e-02
NCO	1.26200000e+02	3.39438750e+06	2.90000000e-01	8.96459365e-05	4.00000000e-02
N2	1.26200000e+02	3.39438750e+06	2.90000000e-01	8.96459365e-05	4.00000000e-02
AR	1.50800000e+02	4.87373250e+06	2.91000000e-01	7.48630155e-05	-4.00000000e-03
C3H7	1.26200000e+02	3.39438750e+06	2.90000000e-01	8.96459365e-05	4.00000000e-02
C3H8	3.69800000e+02	4.24551750e+06	2.81000000e-01	2.03506023e-04	1.52000000e-01
CH2CHO	1.26200000e+02	3.39438750e+06	2.90000000e-01	8.96459365e-05	4.00000000e-02
CH3CHO	1.26200000e+02	3.39438750e+06	2.90000000e-01	8.96459365e-05	4.00000000e-02
END

TRANSPORT	53
	H2		1	38.000	2.920	0.000	0.790	280.000
	H		0	145.000	2.050	0.000	0.000	0.000
	O		0	80.000	2.750	0.000	0.000	0.000
	O2		1	107.400	3.458	0.000	1.600	3.800
	OH		1	80.000	2.750	0.000	0.000	0.000
	H2O		2	572.400	2.605	1.844	0.000	4.000
	HO2		2	107.400	3.458	0.000	0.000	1.000
	H2O2		2	107.400	3.458	0.000	0.000	3.800
	C		0	71.400	3.298	0.000	0.000	0.000
	CH		1	80.000	2.750	0.000	0.000	0.000
	CH2		1	144.000	3.800	0.000	0.000	0.000
	CH2(S)		1	144.000	3.800	0.000	0.000	0.000
	CH3		1	144.000	3.800	0.000	0.000	0.000
	CH4		2	141.400	3.746	0.000	2.600	13.000
	CO		1	98.100	3.650	0.000	1.950	1.800
	CO2		1	244.000	3.763	0.000	2.650	2.100
	HCO		2	498.000	3.590	0.000	0.000	0.000
	CH2O		2	498.000	3.590	0.000	0.000	2.000
	CH2OH		2	417.000	3.690	1.700	0.000	2.000
	CH3O		2	417.000	3.690	1.700	0.000	2.000
	CH3OH		2	481.800	3.626	0.000	0.000	1.000
	C2H		1	209.000	4.100	0.000	0.000	2.500
	C2H2		1	209.000	4.100	0.000	0.000	2.500
	C2H3		2	209.000	4.100	0.000	0.000	1.000
	C2H4		2	280.800	3.971	0.000	0.000	1.500
	C2H5		2	252.300	4.302	0.000	0.000	1.500
	C2H6		2	252.300	4.302	0.000	0.000	1.500
	HCCO		2	150.000	2.500	0.000	0.000	1.000
	CH2CO		2	436.000	3.970	0.000	0.000	2.000
	HCCOH		2	436.000	3.970	0.000	0.000	2.000
	N		0	71.400	3.298	0.000	0.000	0.000
	NH		1	80.000	2.650	0.000	0.000	4.000
	NH2		2	80.000	2.650	0.000	2.260	4.000
	NH3		2	481.000	2.920	1.470	0.000	10.000
	NNH		2	71.400	3.798	0.000	0.000	1.000
	NO		1	97.530	3.621	0.000	1.760	4.000
	NO2		2	200.000	3.500	0.000	0.000	1.000
	N2O		1	232.400	3.828	0.000	0.000	1.000
	HNO		2	116.700	3.492	0.000	0.000	1.000
	CN		1	75.000	3.856	0.000	0.000	1.000
	HCN		1	569.000	3.630	0.000	0.000	1.000
	H2CN		1	569.000	3.630	0.000	0.000	1.000
	HCNN		2	150.000	2.500	0.000	0.000	1.000
	HCNO		2	232.400	3.828	0.000	0.000	1.000
	HOCN		2	232.400	3.828	0.000	0.000	1.000
	HNCO		2	232.400	3.828	0.000	0.000	1.000
	NCO		1	232.400	3.828	0.000	0.000	1.000
	N2		1	97.530	3.621	0.000	1.760	4.000
	AR		0	136.500	3.330	0.000	0.000	0.000
	C3H7		2	266.800	4.982	0.000	0.000	1.000
	C3H8		2	266.800	4.982	0.000	0.000	1.000
	CH2CHO		2	436.000	3.970	0.000	0.000	2.000
	CH3CHO		2	436.000	3.970	0.000	0.000	2.000
END


REAC	325
	#
	1	1	22	REV	INDEP	M
	2
	2	2	O	1	1	M
	2
	1	1	O2	1	1	M
	1.20000000e+17	-1	0.00000000e+00
	ENHANCED	7
	H2	2.4
	H2O	15.4
	CH4	2
	CO	1.75
	CO2	3.6
	C2H6	3
	AR	0.83
	#
	2	1	24	REV	INDEP	M
	3
	1	1	O	1	1	H	1	1	M
	2
	1	1	OH	1	1	M
	5.00000000e+17	-1	0.00000000e+00
	ENHANCED	7
	H2	2
	H2O	6
	CH4	2
	CO	1.5
	CO2	2
	C2H6	3
	AR	0.7
	#
	3	1	26	REV	INDEP	M
	2
	1	1	O	1	1	H2
	2
	1	1	H	1	1	OH
	3.87000000e+04	2.7	3.15228236e+03
	#
	4	1	27	REV	INDEP	M
	2
	1	1	O	1	1	HO2
	2
	1	1	OH	1	1	O2
	2.00000000e+13	0	0.00000000e+00
	#
	5	1	28	REV	INDEP	M
	2
	1	1	O	1	1	H2O2
	2
	1	1	OH	1	1	HO2
	9.63000000e+06	2	2.01423793e+03
	#
	6	1	29	REV	INDEP	M
	2
	1	1	O	1	1	CH
	2
	1	1	H	1	1	CO